Version 4
SHEET 1 1088 880
WIRE 48 64 560 64
WIRE 48 64 48 160
WIRE 48 240 48 288
WIRE 112 64 112 96
WIRE 112 176 112 256
WIRE 112 176 192 176
WIRE 112 336 112 560
WIRE 192 96 336 96
WIRE 192 96 192 176
WIRE 192 176 192 240
WIRE 192 240 192 304
WIRE 192 304 448 304
WIRE 288 304 288 336
WIRE 288 400 288 560
WIRE 336 96 336 112
WIRE 336 192 432 192
WIRE 352 304 352 352
WIRE 352 432 352 560
WIRE 432 192 432 240
WIRE 448 48 448 64
WIRE 448 128 448 144
WIRE 448 144 560 144
WIRE 448 240 448 304
WIRE 560 112 560 144
WIRE 560 176 560 208
WIRE 112 560 560 560
WIRE 448 624 448 656
WIRE 448 736 448 768
FLAG 48 288 0
FLAG 448 768 0
FLAG 560 208 OUT
FLAG 48 64 V+
FLAG 448 640 controle
SYMBOL voltage 48 144 R0
SYMATTR InstName V1
SYMATTR Value 12
SYMBOL voltage 432 640 R0
SYMATTR InstName Vkey
SYMATTR Value PULSE(12 0 5m 10u 10u 20m 40m)
SYMBOL res 96 80 R0
SYMATTR InstName R1
SYMATTR Value 15k
SYMBOL res 96 240 R0
SYMATTR InstName R2
SYMATTR Value 15k
SYMBOL res 320 96 R0
SYMATTR InstName R3
SYMATTR Value 18k
SYMBOL res 432 32 R0
SYMATTR InstName R4
SYMATTR Value 220
SYMBOL res 336 336 R0
SYMATTR InstName R5
SYMATTR Value 2.7k
SYMBOL cap 176 240 R0
SYMATTR InstName C1
SYMATTR Value 100n
SYMBOL cap 416 240 R0
SYMATTR InstName C2
SYMATTR Value 100n
SYMBOL cap 272 336 R0
SYMATTR InstName C3
SYMATTR Value 100n
SYMBOL cap 544 112 R0
SYMATTR InstName C4
SYMATTR Value 10n
SYMBOL npn 432 144 R0
SYMATTR InstName Q1
SYMATTR Value 2N3904
SYMBOL diode 432 560 R0
SYMATTR InstName D1
SYMATTR Value 1N4148
TEXT 40 16 Left 2 ;side tone Pixie  (gated audio oscillator)
TEXT 616 400 Left 2 !.tran 0 80m 0 10u
TEXT 600 472 Left 1 ;Q1 E=node3, R5=emitter R, C3=bypass.\nD1 gates node7 return to key (node8/controle).\nKey LOW = tone on.
